Version 4
SHEET 1 996 680
WIRE 336 128 128 128
WIRE 480 128 336 128
WIRE 336 208 336 128
WIRE 480 208 480 128
WIRE 128 272 128 128
WIRE 256 320 256 176
WIRE 336 320 336 288
WIRE 336 320 256 320
WIRE 480 320 480 288
WIRE 688 320 480 320
WIRE 336 352 336 320
WIRE 480 352 480 320
WIRE 128 496 128 352
WIRE 336 496 336 432
WIRE 336 496 128 496
WIRE 480 496 480 432
WIRE 480 496 336 496
WIRE 336 544 336 496
FLAG 336 544 0
FLAG 256 176 A
FLAG 688 320 B
DATAFLAG 384 128 "$"
DATAFLAG 272 496 "$"
DATAFLAG 608 320 "$"
DATAFLAG 256 224 "$"
SYMBOL voltage 128 256 R0
SYMATTR InstName V1
SYMATTR Value 2.5V
SYMBOL Misc/EuropeanResistor 320 192 R0
SYMATTR InstName R1
SYMATTR Value 5k
SYMBOL Misc/EuropeanResistor 320 336 R0
SYMATTR InstName R2
SYMATTR Value 2k
SYMBOL Misc/EuropeanResistor 464 192 R0
SYMATTR InstName R3
SYMATTR Value 5k
SYMBOL Misc/EuropeanResistor 464 336 R0
SYMATTR InstName R4
SYMATTR Value 1k
TEXT 144 600 Left 2 !.op
