Version 4
SHEET 1 2260 1072
WIRE 880 -352 880 -432
WIRE 1040 -352 880 -352
WIRE 1104 -352 1040 -352
WIRE 1424 -352 1360 -352
WIRE 1616 -352 1424 -352
WIRE 1776 -352 1616 -352
WIRE 2000 -352 1776 -352
WIRE 1776 -304 1776 -352
WIRE 2000 -304 2000 -352
WIRE 880 -208 880 -352
WIRE 1424 -208 1424 -352
WIRE 1040 -192 1040 -352
WIRE 1776 -176 1776 -224
WIRE 1808 -176 1776 -176
WIRE 2000 -176 2000 -224
WIRE 2000 -176 1968 -176
WIRE 1776 -128 1776 -176
WIRE 2000 -128 2000 -176
WIRE 880 16 880 -128
WIRE 1040 16 1040 -128
WIRE 1232 16 1232 -256
WIRE 1424 16 1424 -144
WIRE 1776 32 1776 -48
WIRE 1888 32 1776 32
WIRE 2000 32 2000 -48
WIRE 2000 32 1888 32
WIRE 1888 64 1888 32
WIRE 1744 160 1712 160
WIRE 1856 160 1824 160
WIRE 1648 288 1632 288
WIRE 1648 320 1648 288
WIRE 1712 320 1712 160
WIRE 1712 320 1648 320
WIRE 1744 320 1712 320
WIRE 1856 336 1856 160
WIRE 1856 336 1808 336
WIRE 1872 336 1856 336
WIRE 1712 352 1648 352
WIRE 1744 352 1712 352
WIRE 1648 384 1648 352
WIRE 1648 384 1632 384
WIRE 1712 448 1712 352
WIRE 1776 448 1776 368
WIRE 1712 560 1712 528
WIRE 1440 736 1296 736
WIRE 1824 752 1824 720
WIRE 1296 880 1296 736
WIRE 1344 880 1296 880
WIRE 1440 896 1440 736
WIRE 1440 896 1408 896
WIRE 1504 896 1440 896
WIRE 1632 896 1632 848
WIRE 1632 896 1584 896
WIRE 1680 896 1632 896
WIRE 1824 896 1824 832
WIRE 1824 896 1760 896
WIRE 1872 896 1824 896
WIRE 1344 912 1200 912
WIRE 1632 944 1632 896
WIRE 1824 944 1824 896
WIRE 1376 1056 1376 928
WIRE 1632 1056 1632 1024
WIRE 1824 1056 1824 1024
FLAG 1888 64 0
FLAG 1968 -176 B
IOPIN 1968 -176 Out
FLAG 1808 -176 A
IOPIN 1808 -176 Out
FLAG 880 16 0
FLAG 1712 560 0
FLAG 1776 304 UDD
IOPIN 1776 304 In
FLAG 1552 288 B
IOPIN 1552 288 In
FLAG 1552 384 A
IOPIN 1552 384 In
FLAG 1872 336 U_ADC
IOPIN 1872 336 Out
FLAG 1376 864 UDD
IOPIN 1376 864 In
FLAG 1200 912 B
IOPIN 1200 912 In
FLAG 1824 720 U_ADC
IOPIN 1824 720 In
FLAG 1632 1056 0
FLAG 1824 1056 0
FLAG 1632 848 M-
IOPIN 1632 848 Out
FLAG 1872 896 M+
IOPIN 1872 896 Out
FLAG 1376 1056 0
FLAG 1776 448 0
FLAG 1232 16 0
FLAG 1424 16 0
FLAG 1040 16 0
FLAG 880 -432 UDD
IOPIN 880 -432 Out
FLAG 1616 -352 U_Ref
SYMBOL Misc/EuropeanResistor 1760 -320 R0
SYMATTR InstName R1
SYMATTR Value 5.23k
SYMBOL Misc/EuropeanResistor 1760 -144 R0
SYMATTR InstName R2
SYMATTR Value {KTY81_210}
SYMBOL Misc/EuropeanResistor 1984 -320 R0
SYMATTR InstName R3
SYMATTR Value 5.23k
SYMBOL Misc/EuropeanResistor 1984 -144 R0
SYMATTR InstName R4
SYMATTR Value 1.282k
SYMBOL voltage 880 -224 R0
SYMATTR InstName V2
SYMATTR Value 5V
SYMBOL Misc/EuropeanResistor 1648 272 R90
WINDOW 0 5 56 VBottom 2
WINDOW 3 27 56 VTop 2
SYMATTR InstName R5
SYMATTR Value 91k
SYMBOL Misc/EuropeanResistor 1648 368 R90
WINDOW 0 5 56 VBottom 2
WINDOW 3 27 56 VTop 2
SYMATTR InstName R6
SYMATTR Value 91k
SYMBOL Misc/EuropeanResistor 1840 144 R90
WINDOW 0 5 56 VBottom 2
WINDOW 3 27 56 VTop 2
SYMATTR InstName R7
SYMATTR Value 470k
SYMBOL Misc/EuropeanResistor 1728 544 R180
WINDOW 0 31 76 Left 2
WINDOW 3 31 40 Left 2
SYMATTR InstName R8
SYMATTR Value 470k
SYMBOL Opamps/UniversalOpamp2 1776 336 R0
SYMATTR InstName U1
SYMBOL Opamps/UniversalOpamp2 1376 896 R0
SYMATTR InstName U2
SYMBOL Misc/EuropeanResistor 1600 880 R90
WINDOW 0 5 56 VBottom 2
WINDOW 3 27 56 VTop 2
SYMATTR InstName R9
SYMATTR Value {P1a}
SYMBOL Misc/EuropeanResistor 1776 880 R90
WINDOW 0 5 56 VBottom 2
WINDOW 3 27 56 VTop 2
SYMATTR InstName Rmess
SYMATTR Value 10Meg
SYMBOL Misc/EuropeanResistor 1648 1040 R180
WINDOW 0 31 76 Left 2
WINDOW 3 31 40 Left 2
SYMATTR InstName R11
SYMATTR Value {P1b}
SYMBOL Misc/EuropeanResistor 1840 1040 R180
WINDOW 0 31 76 Left 2
WINDOW 3 31 40 Left 2
SYMATTR InstName R12
SYMATTR Value {P2b}
SYMBOL Misc/EuropeanResistor 1840 848 R180
WINDOW 0 31 76 Left 2
WINDOW 3 31 40 Left 2
SYMATTR InstName R13
SYMATTR Value {P1b}
SYMBOL References/ADR4525 1232 -352 R0
SYMATTR InstName U3
SYMBOL cap 1408 -208 R0
SYMATTR InstName C1
SYMATTR Value 1µ
SYMBOL cap 1024 -192 R0
SYMATTR InstName C2
SYMATTR Value 0.1µ
TEXT 1520 96 Left 1 !.param KTY81_210=2k*(1+7.874m*(TEMP1-25)+18.74u*(TEMP1-25)**2)\n.step param TEMP1 -30 100 5\n.op
TEXT 1992 632 Left 2 ;Poti1: R9, R11
TEXT 1992 904 Left 2 ;Poti2: R13,R12
TEXT 1984 664 Left 2 !.param x 0.54\n.param Poti1 10k\n.param P1b=x*Poti1\n.param P1a=(1-x)*Poti1
TEXT 1992 936 Left 2 !.param y 0.51\n.param Poti2 10k\n.param P2b=x*Poti2\n.param P2a=(1-y)*Poti2
