Version 4
SHEET 1 2324 1072
WIRE 1488 -1040 1488 -1120
WIRE 1648 -1040 1488 -1040
WIRE 1712 -1040 1648 -1040
WIRE 2032 -1040 1968 -1040
WIRE 2176 -1040 2032 -1040
WIRE 1488 -896 1488 -1040
WIRE 2032 -896 2032 -1040
WIRE 1648 -880 1648 -1040
WIRE 1488 -672 1488 -816
WIRE 1648 -672 1648 -816
WIRE 1840 -672 1840 -944
WIRE 2032 -672 2032 -832
WIRE 1392 -448 1232 -448
WIRE 1616 -448 1392 -448
WIRE 1392 -400 1392 -448
WIRE 1616 -400 1616 -448
WIRE 1392 -272 1392 -320
WIRE 1424 -272 1392 -272
WIRE 1616 -272 1616 -320
WIRE 1616 -272 1584 -272
WIRE 1392 -224 1392 -272
WIRE 1616 -224 1616 -272
WIRE 1392 -64 1392 -144
WIRE 1504 -64 1392 -64
WIRE 1616 -64 1616 -144
WIRE 1616 -64 1504 -64
WIRE 1504 -32 1504 -64
WIRE 1472 48 1440 48
WIRE 1584 48 1552 48
WIRE 1376 176 1360 176
WIRE 1376 208 1376 176
WIRE 1440 208 1440 48
WIRE 1440 208 1376 208
WIRE 1472 208 1440 208
WIRE 1584 224 1584 48
WIRE 1584 224 1536 224
WIRE 1600 224 1584 224
WIRE 1440 240 1376 240
WIRE 1472 240 1440 240
WIRE 1376 272 1376 240
WIRE 1376 272 1360 272
WIRE 1440 336 1440 240
WIRE 1504 336 1504 256
WIRE 1440 448 1440 416
WIRE 1344 512 1200 512
WIRE 1728 528 1728 496
WIRE 1200 656 1200 512
WIRE 1248 656 1200 656
WIRE 1344 672 1344 512
WIRE 1344 672 1312 672
WIRE 1408 672 1344 672
WIRE 1536 672 1536 624
WIRE 1536 672 1488 672
WIRE 1584 672 1536 672
WIRE 1728 672 1728 608
WIRE 1728 672 1664 672
WIRE 1776 672 1728 672
WIRE 1248 688 1104 688
WIRE 1536 720 1536 672
WIRE 1728 720 1728 672
WIRE 1280 832 1280 704
WIRE 1536 832 1536 800
WIRE 1728 832 1728 800
FLAG 1504 -32 0
FLAG 1584 -272 B
IOPIN 1584 -272 Out
FLAG 1424 -272 A
IOPIN 1424 -272 Out
FLAG 1488 -672 0
FLAG 1440 448 0
FLAG 1504 192 UDD
IOPIN 1504 192 In
FLAG 1280 176 B
IOPIN 1280 176 In
FLAG 1280 272 A
IOPIN 1280 272 In
FLAG 1600 224 U_ADC
IOPIN 1600 224 Out
FLAG 1280 640 UDD
IOPIN 1280 640 In
FLAG 1104 688 B
IOPIN 1104 688 In
FLAG 1728 496 U_ADC
IOPIN 1728 496 In
FLAG 1536 832 0
FLAG 1728 832 0
FLAG 1536 624 M-
IOPIN 1536 624 Out
FLAG 1776 672 M+
IOPIN 1776 672 Out
FLAG 1280 832 0
FLAG 1504 336 0
FLAG 1840 -672 0
FLAG 2032 -672 0
FLAG 1648 -672 0
FLAG 1488 -1120 UDD
IOPIN 1488 -1120 Out
FLAG 1232 -448 U_Ref
FLAG 2176 -1040 U_Ref
SYMBOL Misc/EuropeanResistor 1376 -416 R0
SYMATTR InstName R1
SYMATTR Value 5.23k
SYMBOL Misc/EuropeanResistor 1376 -240 R0
SYMATTR InstName R2
SYMATTR Value {KTY81_210}
SYMBOL Misc/EuropeanResistor 1600 -416 R0
SYMATTR InstName R3
SYMATTR Value 5.23k
SYMBOL Misc/EuropeanResistor 1600 -240 R0
SYMATTR InstName R4
SYMATTR Value 1.282k
SYMBOL voltage 1488 -912 R0
SYMATTR InstName V2
SYMATTR Value 5V
SYMBOL Misc/EuropeanResistor 1376 160 R90
WINDOW 0 5 56 VBottom 2
WINDOW 3 27 56 VTop 2
SYMATTR InstName R5
SYMATTR Value 91k
SYMBOL Misc/EuropeanResistor 1376 256 R90
WINDOW 0 5 56 VBottom 2
WINDOW 3 27 56 VTop 2
SYMATTR InstName R6
SYMATTR Value 91k
SYMBOL Misc/EuropeanResistor 1568 32 R90
WINDOW 0 5 56 VBottom 2
WINDOW 3 27 56 VTop 2
SYMATTR InstName R7
SYMATTR Value 470k
SYMBOL Misc/EuropeanResistor 1456 432 R180
WINDOW 0 31 76 Left 2
WINDOW 3 31 40 Left 2
SYMATTR InstName R8
SYMATTR Value 470k
SYMBOL Opamps/UniversalOpamp2 1504 224 R0
SYMATTR InstName U1
SYMBOL Opamps/UniversalOpamp2 1280 672 R0
SYMATTR InstName U2
SYMBOL Misc/EuropeanResistor 1504 656 R90
WINDOW 0 5 56 VBottom 2
WINDOW 3 27 56 VTop 2
SYMATTR InstName R9
SYMATTR Value {P1a}
SYMBOL Misc/EuropeanResistor 1680 656 R90
WINDOW 0 5 56 VBottom 2
WINDOW 3 27 56 VTop 2
SYMATTR InstName Rmess
SYMATTR Value 10Meg
SYMBOL Misc/EuropeanResistor 1552 816 R180
WINDOW 0 31 76 Left 2
WINDOW 3 31 40 Left 2
SYMATTR InstName R11
SYMATTR Value {P1b}
SYMBOL Misc/EuropeanResistor 1744 816 R180
WINDOW 0 31 76 Left 2
WINDOW 3 31 40 Left 2
SYMATTR InstName R12
SYMATTR Value {P2b}
SYMBOL Misc/EuropeanResistor 1744 624 R180
WINDOW 0 31 76 Left 2
WINDOW 3 31 40 Left 2
SYMATTR InstName R13
SYMATTR Value {P2a}
SYMBOL References/ADR4525 1840 -1040 R0
SYMATTR InstName U3
SYMBOL cap 2016 -896 R0
SYMATTR InstName C1
SYMATTR Value 1µ
SYMBOL cap 1632 -880 R0
SYMATTR InstName C2
SYMATTR Value 0.1µ
TEXT 1784 -432 Left 1 !.param KTY81_210=2k*(1+7.874m*(TEMP1-25)+18.74u*(TEMP1-25)**2)\n.step param TEMP1 -27 100 0.5\n.op
TEXT 1896 408 Left 2 ;Poti1: R9, R11
TEXT 1896 680 Left 2 ;Poti2: R13,R12
TEXT 1888 440 Left 2 !.param x 0.54\n.param Poti1 10k\n.param P1b=x*Poti1\n.param P1a=(1-x)*Poti1
TEXT 1896 712 Left 2 !.param y 0.51\n.param Poti2 10k\n.param P2b=y*Poti2\n.param P2a=(1-y)*Poti2
